/*--------------------------------*- C++ -*----------------------------------*\
| =========                 |                                                 |
| \\      /  F ield         | OpenFOAM: The Open Source CFD Toolbox           |
|  \\    /   O peration     | Version:  3.0.x                                 |
|   \\  /    A nd           | Web:      www.OpenFOAM.org                      |
|    \\/     M anipulation  |                                                 |
\*---------------------------------------------------------------------------*/
FoamFile
{
    version     2.0;
    format      ascii;
    class       dictionary;
    object      controlDict;
}
// * * * * * * * * * * * * * * * * * * * * * * * * * * * * * * * * * * * * * //

application     pimpleFoam;

startFrom       latestTime; //startTime;

startTime       0;

stopAt          endTime;

endTime         25;//30;

deltaT          0.40;

writeControl    runTime;

writeInterval   1;

writeFormat     binary;

writePrecision  12;

writeCompression compressed;

timeFormat      general;

timePrecision   6;

runTimeModifiable true;

adjustTimeStep  false; // was false

maxCo           0.5;

libs
(
    "libturbinesFoam.so"
);

functions
{
    fieldAverage
    {
        type            fieldAverage;
        functionObjectLibs ("libfieldFunctionObjects.so");
        enabled         true;
        timeStart       1.0;
        outputControl   outputTime;
        resetOnRestart  true;
        resetOnOutput   false;

        fields
        (
            U
            {
                mean        on;
                prime2Mean  on;
                base        time;
            }

            p
            {
                mean        on;
                prime2Mean  off;
                base        time;
            }

            nut
            {
                mean        on;
                prime2Mean  off;
                base        time;
            }

            k
            {
                mean        on;
                prime2Mean  off;
                base        time;
            }
        );
    }
}

DebugSwitches
{
    axialFlowTurbineALSource 0;
    actuatorLineSource  0;
    actuatorLineElement 0;
    LeishmanBeddoes 1;
}

// ************************************************************************* //
